test/test_files/input_tests/raw_transformer_cod4_fixed.raw
   0,   100.00, 30, 0, 1,  60.00
GridDyn RAW transformer COD=4 import regression
Unsupported transformer control codes should import as fixed transformers
   152,'MID500      ', 500.0000,1,     1.630,    50.000,   1,   2,1.04179, -24.0930,   1
  3021,'WDUM        ',  18.0000,1,     0.000,  1320.000,   3,   5,1.00000, -20.5968,   3
 0 / END OF BUS DATA, BEGIN LOAD DATA
 0 / END OF LOAD DATA, BEGIN GENERATOR DATA
 0 / END OF GENERATOR DATA, BEGIN BRANCH DATA
 0 / END OF BRANCH DATA, BEGIN TRANSFORMER DATA
   152,  3021,     0,'T4',1,2,2,    562500,   0.00280,2,'WDUM DC     ',1,   1,0.3900,   2,0.3200,   3,0.1500,   4,0.1400
   0.00130,   0.06300,  1500.00
1.10000, 500.000,   0.000,  1500.00,  1400.00,  1350.00, 4,      0,22.57200,20.62800, 1.10000, 0.90000,  33, 2, 0.00000, 0.00000
1.00000,  18.000
 0 / END OF TRANSFORMER DATA, BEGIN AREA DATA
 0 / END OF AREA DATA, BEGIN TWO-TERMINAL DC DATA
 0 / END OF TWO-TERMINAL DC DATA, BEGIN VSC DC LINE DATA
 0 / END OF VSC DC LINE DATA, BEGIN SWITCHED SHUNT DATA
 0 / END OF SWITCHED SHUNT DATA, BEGIN IMPEDANCE CORRECTION DATA
 0 / END OF IMPEDANCE CORRECTION DATA, BEGIN MULTI-TERMINAL DC DATA
 0 / END OF MULTI-TERMINAL DC DATA, BEGIN MULTI-SECTION LINE DATA
 0 / END OF MULTI-SECTION LINE DATA, BEGIN ZONE DATA
 0 / END OF ZONE DATA, BEGIN INTER-AREA TRANSFER DATA
 0 / END OF INTER-AREA TRANSFER DATA, BEGIN OWNER DATA
 0 / END OF OWNER DATA, BEGIN FACTS DEVICE DATA
 0 / END OF FACTS DEVICE DATA
Q
